Circuit: * E:\Marcus\CAD\Elektronik\ROS_node_Motor\Simulationen\TL341_3V3_180mA.asc

Direct Newton iteration for .op point succeeded.

Date: Sun May 24 21:48:52 2020
Total elapsed time: 0.087 seconds.

tnom = 27
temp = 27
method = modified trap
totiter = 2099
traniter = 2088
tranpoints = 1045
accept = 1045
rejected = 0
matrix size = 7
fillins = 2
solver = Normal
Matrix Compiler1: 530 bytes object code size  0.4/0.2/[0.2]
Matrix Compiler2: off  [0.1]/0.2/0.2

